# OC package for  MODFLOW-2005, generated by Flopy.
HEAD PRINT FORMAT   0
HEAD SAVE UNIT    51
DRAWDOWN PRINT FORMAT   0
DRAWDOWN SAVE UNIT    52
COMPACT BUDGET AUX

period 1 step 1 
  save head
  save drawdown
  save budget
  print head
  print budget

period 2 step 1 
  save head
  save drawdown
  save budget
  print head
  print budget

period 2 step 2 
  save head
  save drawdown
  save budget
  print head
  print budget

period 2 step 3 
  save head
  save drawdown
  save budget
  print head
  print budget

period 2 step 4 
  save head
  save drawdown
  save budget
  print head
  print budget

period 2 step 5 
  save head
  save drawdown
  save budget
  print head
  print budget

period 2 step 6 
  save head
  save drawdown
  save budget
  print head
  print budget

period 2 step 7 
  save head
  save drawdown
  save budget
  print head
  print budget

period 2 step 8 
  save head
  save drawdown
  save budget
  print head
  print budget

period 2 step 9 
  save head
  save drawdown
  save budget
  print head
  print budget

period 2 step 10 
  save head
  save drawdown
  save budget
  print head
  print budget

period 2 step 11 
  save head
  save drawdown
  save budget
  print head
  print budget

period 2 step 12 
  save head
  save drawdown
  save budget
  print head
  print budget

period 2 step 13 
  save head
  save drawdown
  save budget
  print head
  print budget

period 2 step 14 
  save head
  save drawdown
  save budget
  print head
  print budget

period 2 step 15 
  save head
  save drawdown
  save budget
  print head
  print budget

period 2 step 16 
  save head
  save drawdown
  save budget
  print head
  print budget

period 2 step 17 
  save head
  save drawdown
  save budget
  print head
  print budget

period 2 step 18 
  save head
  save drawdown
  save budget
  print head
  print budget

period 2 step 19 
  save head
  save drawdown
  save budget
  print head
  print budget

period 2 step 20 
  save head
  save drawdown
  save budget
  print head
  print budget

period 2 step 21 
  save head
  save drawdown
  save budget
  print head
  print budget

period 2 step 22 
  save head
  save drawdown
  save budget
  print head
  print budget

period 2 step 23 
  save head
  save drawdown
  save budget
  print head
  print budget

period 2 step 24 
  save head
  save drawdown
  save budget
  print head
  print budget

period 2 step 25 
  save head
  save drawdown
  save budget
  print head
  print budget

period 2 step 26 
  save head
  save drawdown
  save budget
  print head
  print budget

period 2 step 27 
  save head
  save drawdown
  save budget
  print head
  print budget

period 2 step 28 
  save head
  save drawdown
  save budget
  print head
  print budget

period 2 step 29 
  save head
  save drawdown
  save budget
  print head
  print budget

period 2 step 30 
  save head
  save drawdown
  save budget
  print head
  print budget

period 2 step 31 
  save head
  save drawdown
  save budget
  print head
  print budget

period 2 step 32 
  save head
  save drawdown
  save budget
  print head
  print budget

period 2 step 33 
  save head
  save drawdown
  save budget
  print head
  print budget

period 2 step 34 
  save head
  save drawdown
  save budget
  print head
  print budget

period 2 step 35 
  save head
  save drawdown
  save budget
  print head
  print budget

period 2 step 36 
  save head
  save drawdown
  save budget
  print head
  print budget

period 2 step 37 
  save head
  save drawdown
  save budget
  print head
  print budget

period 2 step 38 
  save head
  save drawdown
  save budget
  print head
  print budget

period 2 step 39 
  save head
  save drawdown
  save budget
  print head
  print budget

period 2 step 40 
  save head
  save drawdown
  save budget
  print head
  print budget

period 2 step 41 
  save head
  save drawdown
  save budget
  print head
  print budget

period 2 step 42 
  save head
  save drawdown
  save budget
  print head
  print budget

period 2 step 43 
  save head
  save drawdown
  save budget
  print head
  print budget

period 2 step 44 
  save head
  save drawdown
  save budget
  print head
  print budget

period 2 step 45 
  save head
  save drawdown
  save budget
  print head
  print budget

period 2 step 46 
  save head
  save drawdown
  save budget
  print head
  print budget

period 2 step 47 
  save head
  save drawdown
  save budget
  print head
  print budget

period 2 step 48 
  save head
  save drawdown
  save budget
  print head
  print budget

period 2 step 49 
  save head
  save drawdown
  save budget
  print head
  print budget

period 2 step 50 
  save head
  save drawdown
  save budget
  print head
  print budget

period 2 step 51 
  save head
  save drawdown
  save budget
  print head
  print budget

period 2 step 52 
  save head
  save drawdown
  save budget
  print head
  print budget

period 2 step 53 
  save head
  save drawdown
  save budget
  print head
  print budget

period 2 step 54 
  save head
  save drawdown
  save budget
  print head
  print budget

period 2 step 55 
  save head
  save drawdown
  save budget
  print head
  print budget

period 2 step 56 
  save head
  save drawdown
  save budget
  print head
  print budget

period 2 step 57 
  save head
  save drawdown
  save budget
  print head
  print budget

period 2 step 58 
  save head
  save drawdown
  save budget
  print head
  print budget

period 2 step 59 
  save head
  save drawdown
  save budget
  print head
  print budget

period 2 step 60 
  save head
  save drawdown
  save budget
  print head
  print budget

period 2 step 61 
  save head
  save drawdown
  save budget
  print head
  print budget

period 2 step 62 
  save head
  save drawdown
  save budget
  print head
  print budget

period 2 step 63 
  save head
  save drawdown
  save budget
  print head
  print budget

period 2 step 64 
  save head
  save drawdown
  save budget
  print head
  print budget

period 2 step 65 
  save head
  save drawdown
  save budget
  print head
  print budget

period 2 step 66 
  save head
  save drawdown
  save budget
  print head
  print budget

period 2 step 67 
  save head
  save drawdown
  save budget
  print head
  print budget

period 2 step 68 
  save head
  save drawdown
  save budget
  print head
  print budget

period 2 step 69 
  save head
  save drawdown
  save budget
  print head
  print budget

period 2 step 70 
  save head
  save drawdown
  save budget
  print head
  print budget

period 2 step 71 
  save head
  save drawdown
  save budget
  print head
  print budget

period 2 step 72 
  save head
  save drawdown
  save budget
  print head
  print budget

period 2 step 73 
  save head
  save drawdown
  save budget
  print head
  print budget

period 2 step 74 
  save head
  save drawdown
  save budget
  print head
  print budget

period 2 step 75 
  save head
  save drawdown
  save budget
  print head
  print budget

period 2 step 76 
  save head
  save drawdown
  save budget
  print head
  print budget

period 2 step 77 
  save head
  save drawdown
  save budget
  print head
  print budget

period 2 step 78 
  save head
  save drawdown
  save budget
  print head
  print budget

period 2 step 79 
  save head
  save drawdown
  save budget
  print head
  print budget

period 2 step 80 
  save head
  save drawdown
  save budget
  print head
  print budget

period 2 step 81 
  save head
  save drawdown
  save budget
  print head
  print budget

period 2 step 82 
  save head
  save drawdown
  save budget
  print head
  print budget

period 2 step 83 
  save head
  save drawdown
  save budget
  print head
  print budget

period 2 step 84 
  save head
  save drawdown
  save budget
  print head
  print budget

period 2 step 85 
  save head
  save drawdown
  save budget
  print head
  print budget

period 2 step 86 
  save head
  save drawdown
  save budget
  print head
  print budget

period 2 step 87 
  save head
  save drawdown
  save budget
  print head
  print budget

period 2 step 88 
  save head
  save drawdown
  save budget
  print head
  print budget

period 2 step 89 
  save head
  save drawdown
  save budget
  print head
  print budget

period 2 step 90 
  save head
  save drawdown
  save budget
  print head
  print budget

period 2 step 91 
  save head
  save drawdown
  save budget
  print head
  print budget

period 2 step 92 
  save head
  save drawdown
  save budget
  print head
  print budget

period 2 step 93 
  save head
  save drawdown
  save budget
  print head
  print budget

period 2 step 94 
  save head
  save drawdown
  save budget
  print head
  print budget

period 2 step 95 
  save head
  save drawdown
  save budget
  print head
  print budget

period 2 step 96 
  save head
  save drawdown
  save budget
  print head
  print budget

period 2 step 97 
  save head
  save drawdown
  save budget
  print head
  print budget

period 2 step 98 
  save head
  save drawdown
  save budget
  print head
  print budget

period 2 step 99 
  save head
  save drawdown
  save budget
  print head
  print budget

period 2 step 100 
  save head
  save drawdown
  save budget
  print head
  print budget

period 3 step 1 
  save head
  save drawdown
  save budget
  print head
  print budget

period 3 step 2 
  save head
  save drawdown
  save budget
  print head
  print budget

period 3 step 3 
  save head
  save drawdown
  save budget
  print head
  print budget

period 3 step 4 
  save head
  save drawdown
  save budget
  print head
  print budget

period 3 step 5 
  save head
  save drawdown
  save budget
  print head
  print budget

period 3 step 6 
  save head
  save drawdown
  save budget
  print head
  print budget

period 3 step 7 
  save head
  save drawdown
  save budget
  print head
  print budget

period 3 step 8 
  save head
  save drawdown
  save budget
  print head
  print budget

period 3 step 9 
  save head
  save drawdown
  save budget
  print head
  print budget

period 3 step 10 
  save head
  save drawdown
  save budget
  print head
  print budget

period 3 step 11 
  save head
  save drawdown
  save budget
  print head
  print budget

period 3 step 12 
  save head
  save drawdown
  save budget
  print head
  print budget

period 3 step 13 
  save head
  save drawdown
  save budget
  print head
  print budget

period 3 step 14 
  save head
  save drawdown
  save budget
  print head
  print budget

period 3 step 15 
  save head
  save drawdown
  save budget
  print head
  print budget

period 3 step 16 
  save head
  save drawdown
  save budget
  print head
  print budget

period 3 step 17 
  save head
  save drawdown
  save budget
  print head
  print budget

period 3 step 18 
  save head
  save drawdown
  save budget
  print head
  print budget

period 3 step 19 
  save head
  save drawdown
  save budget
  print head
  print budget

period 3 step 20 
  save head
  save drawdown
  save budget
  print head
  print budget

period 3 step 21 
  save head
  save drawdown
  save budget
  print head
  print budget

period 3 step 22 
  save head
  save drawdown
  save budget
  print head
  print budget

period 3 step 23 
  save head
  save drawdown
  save budget
  print head
  print budget

period 3 step 24 
  save head
  save drawdown
  save budget
  print head
  print budget

period 3 step 25 
  save head
  save drawdown
  save budget
  print head
  print budget

period 3 step 26 
  save head
  save drawdown
  save budget
  print head
  print budget

period 3 step 27 
  save head
  save drawdown
  save budget
  print head
  print budget

period 3 step 28 
  save head
  save drawdown
  save budget
  print head
  print budget

period 3 step 29 
  save head
  save drawdown
  save budget
  print head
  print budget

period 3 step 30 
  save head
  save drawdown
  save budget
  print head
  print budget

period 3 step 31 
  save head
  save drawdown
  save budget
  print head
  print budget

period 3 step 32 
  save head
  save drawdown
  save budget
  print head
  print budget

period 3 step 33 
  save head
  save drawdown
  save budget
  print head
  print budget

period 3 step 34 
  save head
  save drawdown
  save budget
  print head
  print budget

period 3 step 35 
  save head
  save drawdown
  save budget
  print head
  print budget

period 3 step 36 
  save head
  save drawdown
  save budget
  print head
  print budget

period 3 step 37 
  save head
  save drawdown
  save budget
  print head
  print budget

period 3 step 38 
  save head
  save drawdown
  save budget
  print head
  print budget

period 3 step 39 
  save head
  save drawdown
  save budget
  print head
  print budget

period 3 step 40 
  save head
  save drawdown
  save budget
  print head
  print budget

period 3 step 41 
  save head
  save drawdown
  save budget
  print head
  print budget

period 3 step 42 
  save head
  save drawdown
  save budget
  print head
  print budget

period 3 step 43 
  save head
  save drawdown
  save budget
  print head
  print budget

period 3 step 44 
  save head
  save drawdown
  save budget
  print head
  print budget

period 3 step 45 
  save head
  save drawdown
  save budget
  print head
  print budget

period 3 step 46 
  save head
  save drawdown
  save budget
  print head
  print budget

period 3 step 47 
  save head
  save drawdown
  save budget
  print head
  print budget

period 3 step 48 
  save head
  save drawdown
  save budget
  print head
  print budget

period 3 step 49 
  save head
  save drawdown
  save budget
  print head
  print budget

period 3 step 50 
  save head
  save drawdown
  save budget
  print head
  print budget

period 3 step 51 
  save head
  save drawdown
  save budget
  print head
  print budget

period 3 step 52 
  save head
  save drawdown
  save budget
  print head
  print budget

period 3 step 53 
  save head
  save drawdown
  save budget
  print head
  print budget

period 3 step 54 
  save head
  save drawdown
  save budget
  print head
  print budget

period 3 step 55 
  save head
  save drawdown
  save budget
  print head
  print budget

period 3 step 56 
  save head
  save drawdown
  save budget
  print head
  print budget

period 3 step 57 
  save head
  save drawdown
  save budget
  print head
  print budget

period 3 step 58 
  save head
  save drawdown
  save budget
  print head
  print budget

period 3 step 59 
  save head
  save drawdown
  save budget
  print head
  print budget

period 3 step 60 
  save head
  save drawdown
  save budget
  print head
  print budget

period 3 step 61 
  save head
  save drawdown
  save budget
  print head
  print budget

period 3 step 62 
  save head
  save drawdown
  save budget
  print head
  print budget

period 3 step 63 
  save head
  save drawdown
  save budget
  print head
  print budget

period 3 step 64 
  save head
  save drawdown
  save budget
  print head
  print budget

period 3 step 65 
  save head
  save drawdown
  save budget
  print head
  print budget

period 3 step 66 
  save head
  save drawdown
  save budget
  print head
  print budget

period 3 step 67 
  save head
  save drawdown
  save budget
  print head
  print budget

period 3 step 68 
  save head
  save drawdown
  save budget
  print head
  print budget

period 3 step 69 
  save head
  save drawdown
  save budget
  print head
  print budget

period 3 step 70 
  save head
  save drawdown
  save budget
  print head
  print budget

period 3 step 71 
  save head
  save drawdown
  save budget
  print head
  print budget

period 3 step 72 
  save head
  save drawdown
  save budget
  print head
  print budget

period 3 step 73 
  save head
  save drawdown
  save budget
  print head
  print budget

period 3 step 74 
  save head
  save drawdown
  save budget
  print head
  print budget

period 3 step 75 
  save head
  save drawdown
  save budget
  print head
  print budget

period 3 step 76 
  save head
  save drawdown
  save budget
  print head
  print budget

period 3 step 77 
  save head
  save drawdown
  save budget
  print head
  print budget

period 3 step 78 
  save head
  save drawdown
  save budget
  print head
  print budget

period 3 step 79 
  save head
  save drawdown
  save budget
  print head
  print budget

period 3 step 80 
  save head
  save drawdown
  save budget
  print head
  print budget

period 3 step 81 
  save head
  save drawdown
  save budget
  print head
  print budget

period 3 step 82 
  save head
  save drawdown
  save budget
  print head
  print budget

period 3 step 83 
  save head
  save drawdown
  save budget
  print head
  print budget

period 3 step 84 
  save head
  save drawdown
  save budget
  print head
  print budget

period 3 step 85 
  save head
  save drawdown
  save budget
  print head
  print budget

period 3 step 86 
  save head
  save drawdown
  save budget
  print head
  print budget

period 3 step 87 
  save head
  save drawdown
  save budget
  print head
  print budget

period 3 step 88 
  save head
  save drawdown
  save budget
  print head
  print budget

period 3 step 89 
  save head
  save drawdown
  save budget
  print head
  print budget

period 3 step 90 
  save head
  save drawdown
  save budget
  print head
  print budget

period 3 step 91 
  save head
  save drawdown
  save budget
  print head
  print budget

period 3 step 92 
  save head
  save drawdown
  save budget
  print head
  print budget

period 3 step 93 
  save head
  save drawdown
  save budget
  print head
  print budget

period 3 step 94 
  save head
  save drawdown
  save budget
  print head
  print budget

period 3 step 95 
  save head
  save drawdown
  save budget
  print head
  print budget

period 3 step 96 
  save head
  save drawdown
  save budget
  print head
  print budget

period 3 step 97 
  save head
  save drawdown
  save budget
  print head
  print budget

period 3 step 98 
  save head
  save drawdown
  save budget
  print head
  print budget

period 3 step 99 
  save head
  save drawdown
  save budget
  print head
  print budget

period 3 step 100 
  save head
  save drawdown
  save budget
  print head
  print budget

