# Name file for MODFLOW-2005, generated by Flopy version 3.3.0.
#xll:0.0; yll:0.0; rotation:0.0; units:meters; lenuni:2; start_datetime:1-1-1970
LIST               2  test_model.list
DIS               11  test_model.dis
BAS6              13  test_model.bas
LPF               15  test_model.lpf
PCG               27  test_model.pcg
GHB               23  test_model.ghb
WEL               20  test_model.wel
OC                14  test_model.oc
DATA(BINARY)      53  test_model.cbc REPLACE
DATA(BINARY)      51  test_model.hds REPLACE
DATA(BINARY)      52  test_model.ddn REPLACE
