# GHB package for  MODFLOW-2005, generated by Flopy.
        20         0
        20         0 # stress period 1
         1         1         1            10.0          6000.0
         1         1        10            10.0          6000.0
         1         2         1            10.0          6000.0
         1         2        10            10.0          6000.0
         1         3         1            10.0          6000.0
         1         3        10            10.0          6000.0
         1         4         1            10.0          6000.0
         1         4        10            10.0          6000.0
         1         5         1            10.0          6000.0
         1         5        10            10.0          6000.0
         1         6         1            10.0          6000.0
         1         6        10            10.0          6000.0
         1         7         1            10.0          6000.0
         1         7        10            10.0          6000.0
         1         8         1            10.0          6000.0
         1         8        10            10.0          6000.0
         1         9         1            10.0          6000.0
         1         9        10            10.0          6000.0
         1        10         1            10.0          6000.0
         1        10        10            10.0          6000.0
        20         0 # stress period 2
         1         1         1            10.0          6000.0
         1         1        10             0.0          5000.0
         1         2         1            10.0          6000.0
         1         2        10             0.0          5000.0
         1         3         1            10.0          6000.0
         1         3        10             0.0          5000.0
         1         4         1            10.0          6000.0
         1         4        10             0.0          5000.0
         1         5         1            10.0          6000.0
         1         5        10             0.0          5000.0
         1         6         1            10.0          6000.0
         1         6        10             0.0          5000.0
         1         7         1            10.0          6000.0
         1         7        10             0.0          5000.0
         1         8         1            10.0          6000.0
         1         8        10             0.0          5000.0
         1         9         1            10.0          6000.0
         1         9        10             0.0          5000.0
         1        10         1            10.0          6000.0
         1        10        10             0.0          5000.0
        -1         0 # stress period 3
