# WEL package for  MODFLOW-2005, generated by Flopy.
         1         0 
         1         0 # stress period 1
         1         5         5             0.0
         1         0 # stress period 2
         1         5         5             0.0
         1         0 # stress period 3
         1         5         5          -100.0
